Circuit: * C:\Users\Matt\Desktop\Idealized_Ckt.asc

.step cv=2.204e-011
.step cv=9.27e-012

Date: Fri Oct 13 14:54:15 2017
Total elapsed time: 0.139 seconds.

tnom = 27
temp = 27
method = trap
totiter = 0
traniter = 0
tranpoints = 0
accept = 0
rejected = 0
matrix size = 4
fillins = 0
solver = Normal

