Circuit: * C:\Users\Matt\Desktop\Realistic_SMV1493_Ckt.asc

Direct Newton iteration for .op point succeeded.
.step vr=0.5
.step vr=6.5

Date: Fri Oct 13 14:31:41 2017
Total elapsed time: 0.227 seconds.

tnom = 27
temp = 27
method = trap
totiter = 5
traniter = 0
tranpoints = 0
accept = 0
rejected = 0
matrix size = 10
fillins = 2
solver = Normal
Matrix Compiler1:      30 opcodes
Matrix Compiler2: 734 bytes object code size
